#\#CIF1.1
##########################################################################
#               Crystallographic Information Format file 
#               Produced by PyCifRW module
# 
#  This is a CIF file.  CIF has been adopted by the International
#  Union of Crystallography as the standard for data archiving and 
#  transmission.
#
#  For information on this file format, follow the CIF links at
#  http://www.iucr.org
##########################################################################

data_sample
_chemical_name  test 
_chemical_formula_sum  FeAlZr 
_cell_length_a  3.5 
_cell_length_b  3.5 
_cell_length_c  3.5 
_cell_angle_alpha  90.0 
_cell_angle_beta  90.0 
_cell_angle_gamma  90.0 
_cell_volume  1.0 
loop_
  _atom_site_label
  _atom_site_fract_x
  _atom_site_fract_y
  _atom_site_fract_z
  _atom_site_type_symbol
    Id2   0.0   0.5   0.5   Zr 
  Al1   0.5   0.5   0.5   Al 
  Id1   0.5   0.0   0.5   Zr 
  Id0   0.5   0.5   0.0   Zr 
  Fe1   0   0   0   Fe 
 
